Version 4
SHEET 1 880 680
WIRE 32 64 -64 64
WIRE 224 64 96 64
WIRE 336 64 224 64
WIRE 496 64 400 64
WIRE 224 144 224 64
WIRE -64 176 -64 64
WIRE -64 176 -112 176
WIRE 496 176 496 64
WIRE 608 176 496 176
WIRE 608 272 608 176
WIRE -64 304 -64 176
WIRE 32 304 -64 304
WIRE 224 304 224 224
WIRE 224 304 96 304
WIRE 336 304 224 304
WIRE 496 304 496 176
WIRE 496 304 400 304
WIRE 224 368 224 304
WIRE -112 448 -112 176
WIRE 608 448 608 352
WIRE 608 448 -112 448
FLAG 224 368 0
SYMBOL voltage 224 128 R0
WINDOW 3 24 44 Left 2
WINDOW 123 0 0 Left 0
WINDOW 39 0 0 Left 0
SYMATTR Value PULSE(-5 5 50u 100n 100n 50u 100u)
SYMATTR InstName Vi
SYMBOL res 592 256 R0
SYMATTR InstName R1
SYMATTR Value 1K
SYMBOL diode 32 80 R270
WINDOW 0 32 32 VTop 2
WINDOW 3 0 32 VBottom 2
SYMATTR InstName D4
SYMATTR Value 1N4148
SYMBOL diode 32 320 R270
WINDOW 0 32 32 VTop 2
WINDOW 3 0 32 VBottom 2
SYMATTR InstName D3
SYMATTR Value 1N4148
SYMBOL diode 336 320 R270
WINDOW 0 32 32 VTop 2
WINDOW 3 0 32 VBottom 2
SYMATTR InstName D2
SYMATTR Value 1N4148
SYMBOL diode 336 80 R270
WINDOW 0 32 32 VTop 2
WINDOW 3 0 32 VBottom 2
SYMATTR InstName D1
SYMATTR Value 1N4148
TEXT -112 456 Left 2 !.tran 200u
