Version 4
SHEET 1 880 680
WIRE 544 -128 368 -128
WIRE 368 -32 368 -48
WIRE 368 -32 336 -32
WIRE 336 128 336 -32
WIRE 544 128 544 -128
WIRE 112 176 -16 176
WIRE 272 176 192 176
WIRE -16 272 -16 176
WIRE -16 496 -16 352
WIRE 336 496 336 224
WIRE 336 496 -16 496
WIRE 544 496 544 208
WIRE 544 496 336 496
WIRE 336 528 336 496
FLAG 336 528 0
SYMBOL voltage -16 256 R0
WINDOW 123 0 0 Left 0
WINDOW 39 0 0 Left 0
SYMATTR InstName Vi
SYMATTR Value PULSE(0 5 0 50us 50us 0 100us)
SYMBOL voltage 544 112 R0
SYMATTR InstName VCC
SYMATTR Value 5
SYMBOL res 208 160 R90
WINDOW 0 0 56 VBottom 2
WINDOW 3 32 56 VTop 2
SYMATTR InstName Rb
SYMATTR Value 1K
SYMBOL res 384 -32 R180
WINDOW 0 36 76 Left 2
WINDOW 3 36 40 Left 2
SYMATTR InstName Rc
SYMATTR Value 1K
SYMBOL npn 272 128 R0
SYMATTR InstName Q1
SYMATTR Value 2N2222
TEXT -50 552 Left 2 !.tran 400us
